data_LuH4-Pn-3m-170GPa
_audit_creation_date              2023-10-26
_audit_creation_method            'Materials Studio'
_symmetry_space_group_name_H-M    'PN-3M'
_symmetry_Int_Tables_number       224
_symmetry_cell_setting            cubic
loop_
_symmetry_equiv_pos_as_xyz
  x,y,z
  -x,-y,z
  -x,y,-z
  x,-y,-z
  z,x,y
  z,-x,-y
  -z,-x,y
  -z,x,-y
  y,z,x
  -y,z,-x
  y,-z,-x
  -y,-z,x
  y+1/2,x+1/2,-z+1/2
  -y+1/2,-x+1/2,-z+1/2
  y+1/2,-x+1/2,z+1/2
  -y+1/2,x+1/2,z+1/2
  x+1/2,z+1/2,-y+1/2
  -x+1/2,z+1/2,y+1/2
  -x+1/2,-z+1/2,-y+1/2
  x+1/2,-z+1/2,y+1/2
  z+1/2,y+1/2,-x+1/2
  z+1/2,-y+1/2,x+1/2
  -z+1/2,y+1/2,x+1/2
  -z+1/2,-y+1/2,-x+1/2
  -x+1/2,-y+1/2,-z+1/2
  x+1/2,y+1/2,-z+1/2
  x+1/2,-y+1/2,z+1/2
  -x+1/2,y+1/2,z+1/2
  -z+1/2,-x+1/2,-y+1/2
  -z+1/2,x+1/2,y+1/2
  z+1/2,x+1/2,-y+1/2
  z+1/2,-x+1/2,y+1/2
  -y+1/2,-z+1/2,-x+1/2
  y+1/2,-z+1/2,x+1/2
  -y+1/2,z+1/2,x+1/2
  y+1/2,z+1/2,-x+1/2
  -y,-x,z
  y,x,z
  -y,x,-z
  y,-x,-z
  -x,-z,y
  x,-z,-y
  x,z,y
  -x,z,-y
  -z,-y,x
  -z,y,-x
  z,-y,-x
  z,y,x
_cell_length_a                    4.1646
_cell_length_b                    4.1646
_cell_length_c                    4.1646
_cell_angle_alpha                 90.0000
_cell_angle_beta                  90.0000
_cell_angle_gamma                 90.0000
loop_
_atom_site_label
_atom_site_type_symbol
_atom_site_fract_x
_atom_site_fract_y
_atom_site_fract_z
_atom_site_U_iso_or_equiv
_atom_site_adp_type
_atom_site_occupancy
Nb1    Nb    0.75000   0.75000   0.75000   0.00000  Uiso   1.00
H1     H     0.33417   0.33417   0.33417   0.00000  Uiso   1.00
H9     H     0.50000   0.50000   0.50000   0.00000  Uiso   1.00
H11    H     0.50000   0.00000   0.00000   0.00000  Uiso   1.00
